circuito/ckt5/ckt5_Power_elem_kVA.txt

CIRCUIT ELEMENT POWER FLOW

(Power Flow into element from indicated Bus)

Power Delivery Elements

  Bus                          Phase     kW     +j   kvar         kVA         PF

ELEMENT = "Vsource.SOURCE"
SOURCEBUS                          1      -517.3 +j   -231.1      566.6       0.9130
SOURCEBUS                          2      -509.4 +j   -252.9      568.7       0.8957
SOURCEBUS                          3      -494.5 +j   -235.1      547.5       0.9031
   TERMINAL TOTAL ...................... -1521.2 +j   -719.2     1682.6       0.9041
SOURCEBUS                          0         0.0 +j      0.0        0.0       1.0000
SOURCEBUS                          0         0.0 +j      0.0        0.0       1.0000
SOURCEBUS                          0         0.0 +j      0.0        0.0       1.0000
   TERMINAL TOTAL ......................     0.0 +j      0.0        0.0       1.0000

ELEMENT = "Line.MDV201_CONNECTOR"
_MDV_SUB_1_LSB                     1       494.4 +j    242.5      550.7       0.8978
_MDV_SUB_1_LSB                     2       538.7 +j    245.3      591.9       0.9101
_MDV_SUB_1_LSB                     3       488.2 +j    231.3      540.2       0.9037
   TERMINAL TOTAL ......................  1521.2 +j    719.2     1682.6       0.9041
MDV201                             1      -494.4 +j   -242.5      550.7       0.8978
MDV201                             2      -538.7 +j   -245.3      591.9       0.9101
MDV201                             3      -488.2 +j   -231.3      540.2       0.9037
   TERMINAL TOTAL ...................... -1521.2 +j   -719.2     1682.6       0.9041

ELEMENT = "Line.MDV201_HN_1_275_A94744"
94743                              1         1.3 +j      0.6        1.4       0.8973
   TERMINAL TOTAL ......................     1.3 +j      0.6        1.4       0.8973
94744                              1        -1.3 +j     -0.6        1.4       0.8946
   TERMINAL TOTAL ......................    -1.3 +j     -0.6        1.4       0.8946

ELEMENT = "Line.MDV201_HN_2_466_C62235"
62244                              3        27.2 +j     12.8       30.0       0.9045
   TERMINAL TOTAL ......................    27.2 +j     12.8       30.0       0.9045
62235                              3       -27.2 +j    -12.8       30.0       0.9045
   TERMINAL TOTAL ......................   -27.2 +j    -12.8       30.0       0.9045

ELEMENT = "Line.MDV201_DA_8_780_A1144234"
1144235                            1         3.5 +j      1.7        3.9       0.8955
   TERMINAL TOTAL ......................     3.5 +j      1.7        3.9       0.8955
1144234                            1        -3.5 +j     -1.8        3.9       0.8940
   TERMINAL TOTAL ......................    -3.5 +j     -1.8        3.9       0.8940

ELEMENT = "Line.MDV201_1160486ELB-1_SW"
39754                              2        10.1 +j      4.3       11.0       0.9206
   TERMINAL TOTAL ......................    10.1 +j      4.3       11.0       0.9206
MDV201_1160486ELB_INT              2       -10.1 +j     -4.3       11.0       0.9206
   TERMINAL TOTAL ......................   -10.1 +j     -4.3       11.0       0.9206

ELEMENT = "Line.MDV201_1160486ELB"
MDV201_1160486ELB_INT              2        10.1 +j      4.3       11.0       0.9206
   TERMINAL TOTAL ......................    10.1 +j      4.3       11.0       0.9206
1160486                            2       -10.1 +j     -4.3       11.0       0.9206
   TERMINAL TOTAL ......................   -10.1 +j     -4.3       11.0       0.9206

ELEMENT = "Line.MDV201_HN_2P009_B1160473"
1160476                            2        37.9 +j     16.1       41.1       0.9206
   TERMINAL TOTAL ......................    37.9 +j     16.1       41.1       0.9206
1160473                            2       -37.9 +j    -16.1       41.1       0.9200
   TERMINAL TOTAL ......................   -37.9 +j    -16.1       41.1       0.9200

ELEMENT = "Line.MDV201_HN_2_088_ABC8164"
8163                               1       119.7 +j     57.8      132.9       0.9003
8163                               2        82.3 +j     37.4       90.4       0.9104
8163                               3       176.3 +j     81.9      194.4       0.9069
   TERMINAL TOTAL ......................   378.2 +j    177.1      417.6       0.9056
8164                               1      -119.7 +j    -57.8      132.9       0.9003
8164                               2       -82.3 +j    -37.4       90.4       0.9104
8164                               3      -176.3 +j    -81.9      194.4       0.9069
   TERMINAL TOTAL ......................  -378.2 +j   -177.1      417.6       0.9056

ELEMENT = "Line.MDV201_HN_2_319_B39610"
103730                             2         2.2 +j      1.1        2.4       0.9016
   TERMINAL TOTAL ......................     2.2 +j      1.1        2.4       0.9016
39610                              2        -2.2 +j     -1.1        2.4       0.9012
   TERMINAL TOTAL ......................    -2.2 +j     -1.1        2.4       0.9012

ELEMENT = "Line.MDV201_HN_2_417_A842"
835                                1        17.2 +j      8.6       19.3       0.8952
   TERMINAL TOTAL ......................    17.2 +j      8.6       19.3       0.8952
842                                1       -17.2 +j     -8.6       19.3       0.8951
   TERMINAL TOTAL ......................   -17.2 +j     -8.6       19.3       0.8951

ELEMENT = "Line.MDV201_HN_2_941_B39760"
39775                              2         7.8 +j      3.4        8.5       0.9160
   TERMINAL TOTAL ......................     7.8 +j      3.4        8.5       0.9160
39760                              2        -7.8 +j     -3.4        8.5       0.9157
   TERMINAL TOTAL ......................    -7.8 +j     -3.4        8.5       0.9157

ELEMENT = "Line.MDV201_1160480ELB-1_SW"
15004                              2        28.5 +j     12.1       31.0       0.9205
   TERMINAL TOTAL ......................    28.5 +j     12.1       31.0       0.9205
MDV201_1160480ELB_INT              2       -28.5 +j    -12.1       31.0       0.9205
   TERMINAL TOTAL ......................   -28.5 +j    -12.1       31.0       0.9205

ELEMENT = "Line.MDV201_1160480ELB"
MDV201_1160480ELB_INT              2        28.5 +j     12.1       31.0       0.9205
   TERMINAL TOTAL ......................    28.5 +j     12.1       31.0       0.9205
1160480                            2       -28.5 +j    -12.1       31.0       0.9205
   TERMINAL TOTAL ......................   -28.5 +j    -12.1       31.0       0.9205

ELEMENT = "Line.C_1P034_SW"
1160492                            1        15.2 +j      7.1       16.8       0.9051
   TERMINAL TOTAL ......................    15.2 +j      7.1       16.8       0.9051
MDV201_8088ELB_INT                 1       -15.2 +j     -7.1       16.8       0.9051
   TERMINAL TOTAL ......................   -15.2 +j     -7.1       16.8       0.9051

ELEMENT = "Line.MDV201_8088ELB"
MDV201_8088ELB_INT                 1        15.2 +j      7.1       16.8       0.9051
   TERMINAL TOTAL ......................    15.2 +j      7.1       16.8       0.9051
8088                               1       -15.2 +j     -7.1       16.8       0.9051
   TERMINAL TOTAL ......................   -15.2 +j     -7.1       16.8       0.9051

ELEMENT = "Line.MDV201_HN_2_499_ABC834"
829                                1       150.5 +j     71.9      166.8       0.9022
829                                2       196.5 +j     88.5      215.5       0.9118
829                                3       142.4 +j     67.7      157.7       0.9031
   TERMINAL TOTAL ......................   489.4 +j    228.2      540.0       0.9063
834                                1      -150.4 +j    -71.9      166.8       0.9022
834                                2      -196.5 +j    -88.5      215.5       0.9118
834                                3      -142.4 +j    -67.7      157.7       0.9030
   TERMINAL TOTAL ......................  -489.3 +j   -228.2      539.9       0.9063

ELEMENT = "Line.MDV201_1160478ELB-1_SW"
15005                              2        21.1 +j      9.0       22.9       0.9197
   TERMINAL TOTAL ......................    21.1 +j      9.0       22.9       0.9197
MDV201_1160478ELB_INT              2       -21.1 +j     -9.0       22.9       0.9197
   TERMINAL TOTAL ......................   -21.1 +j     -9.0       22.9       0.9197

ELEMENT = "Line.MDV201_1160478ELB"
MDV201_1160478ELB_INT              2        21.1 +j      9.0       22.9       0.9197
   TERMINAL TOTAL ......................    21.1 +j      9.0       22.9       0.9197
1160478                            2       -21.1 +j     -9.0       22.9       0.9197
   TERMINAL TOTAL ......................   -21.1 +j     -9.0       22.9       0.9197

ELEMENT = "Line.MDV201_HN_2_217_ABC8160"
44582                              1       119.7 +j     57.8      132.9       0.9004
44582                              2        88.5 +j     40.3       97.3       0.9102
44582                              3       194.0 +j     90.3      214.0       0.9066
   TERMINAL TOTAL ......................   402.2 +j    188.4      444.2       0.9055
8160                               1      -119.7 +j    -57.8      132.9       0.9004
8160                               2       -88.5 +j    -40.3       97.3       0.9102
8160                               3      -194.0 +j    -90.3      214.0       0.9066
   TERMINAL TOTAL ......................  -402.2 +j   -188.4      444.2       0.9055

ELEMENT = "Line.MDV201_HN_2_942_C89791"
89783                              3        22.2 +j     10.2       24.4       0.9083
   TERMINAL TOTAL ......................    22.2 +j     10.2       24.4       0.9083
89791                              3       -22.2 +j    -10.2       24.4       0.9082
   TERMINAL TOTAL ......................   -22.2 +j    -10.2       24.4       0.9082

ELEMENT = "Line.MDV201_99422FUSE"
6584                               1        27.8 +j     13.3       30.8       0.9014
   TERMINAL TOTAL ......................    27.8 +j     13.3       30.8       0.9014
99422                              1       -27.8 +j    -13.3       30.8       0.9014
   TERMINAL TOTAL ......................   -27.8 +j    -13.3       30.8       0.9014

ELEMENT = "Line.MDV201_HN_2_140_ABC8124"
8113                               1        31.3 +j     16.4       35.3       0.8854
8113                               2         2.1 +j      1.0        2.3       0.9028
8113                               3        15.2 +j      7.3       16.8       0.9021
   TERMINAL TOTAL ......................    48.5 +j     24.7       54.4       0.8914
8124                               1       -31.3 +j    -16.4       35.3       0.8853
8124                               2        -2.1 +j     -1.0        2.3       0.9010
8124                               3       -15.2 +j     -7.3       16.8       0.9018
   TERMINAL TOTAL ......................   -48.5 +j    -24.7       54.4       0.8912

ELEMENT = "Line.MDV201_HN_2_818_ABC63707"
14880                              1        22.2 +j     11.2       24.9       0.8928
14880                              2       132.7 +j     59.1      145.3       0.9137
14880                              3        26.9 +j     12.8       29.8       0.9025
   TERMINAL TOTAL ......................   181.9 +j     83.1      199.9       0.9095
63707                              1       -22.2 +j    -11.2       24.9       0.8926
63707                              2      -132.7 +j    -59.1      145.3       0.9137
63707                              3       -26.9 +j    -12.8       29.8       0.9024
   TERMINAL TOTAL ......................  -181.8 +j    -83.1      199.9       0.9095

ELEMENT = "Line.MDV201_DA_8_731_C74450"
74449                              3         3.2 +j      1.5        3.6       0.9087
   TERMINAL TOTAL ......................     3.2 +j      1.5        3.6       0.9087
74450                              3        -3.2 +j     -1.5        3.6       0.9081
   TERMINAL TOTAL ......................    -3.2 +j     -1.5        3.6       0.9081

ELEMENT = "Line.MDV201_100494FUSE"
14989                              2         1.8 +j      0.9        2.0       0.8905
   TERMINAL TOTAL ......................     1.8 +j      0.9        2.0       0.8905
100494                             2        -1.8 +j     -0.9        2.0       0.8904
   TERMINAL TOTAL ......................    -1.8 +j     -0.9        2.0       0.8904

ELEMENT = "Line.MDV201_107110FUSE"
63683                              1        51.7 +j     25.3       57.6       0.8983
63683                              3        26.2 +j     12.1       28.9       0.9075
   TERMINAL TOTAL ......................    77.9 +j     37.4       86.4       0.9014
107110                             1       -51.7 +j    -25.3       57.6       0.8983
107110                             3       -26.2 +j    -12.1       28.9       0.9075
   TERMINAL TOTAL ......................   -77.9 +j    -37.4       86.4       0.9014

ELEMENT = "Line.MDV201_HN_2_477_C8121"
1144242                            3        12.6 +j      6.0       14.0       0.9026
   TERMINAL TOTAL ......................    12.6 +j      6.0       14.0       0.9026
8121                               3       -12.6 +j     -6.0       14.0       0.9025
   TERMINAL TOTAL ......................   -12.6 +j     -6.0       14.0       0.9025

ELEMENT = "Line.MDV201_HN_2_876_C63671"
63668                              3        21.4 +j      9.8       23.5       0.9095
   TERMINAL TOTAL ......................    21.4 +j      9.8       23.5       0.9095
63671                              3       -21.4 +j     -9.8       23.5       0.9094
   TERMINAL TOTAL ......................   -21.4 +j     -9.8       23.5       0.9094

ELEMENT = "Line.MDV201_HN_2_671_C89781"
89784                              3        55.4 +j     25.4       60.9       0.9092
   TERMINAL TOTAL ......................    55.4 +j     25.4       60.9       0.9092
89781                              3       -55.4 +j    -25.4       60.9       0.9091
   TERMINAL TOTAL ......................   -55.4 +j    -25.4       60.9       0.9091

ELEMENT = "Line.MDV201_DA_8_930_A39751"
39734                              1        10.5 +j      5.0       11.6       0.9017
   TERMINAL TOTAL ......................    10.5 +j      5.0       11.6       0.9017
39751                              1       -10.5 +j     -5.0       11.6       0.9014
   TERMINAL TOTAL ......................   -10.5 +j     -5.0       11.6       0.9014

ELEMENT = "Line.MDV201_HN_2_394_ABC63658"
63657                              1       319.0 +j    156.3      355.2       0.8980
63657                              2       432.0 +j    195.0      473.9       0.9115
63657                              3       293.7 +j    139.5      325.2       0.9032
   TERMINAL TOTAL ......................  1044.6 +j    490.8     1154.2       0.9051
63658                              1      -319.0 +j   -156.3      355.2       0.8980
63658                              2      -431.9 +j   -194.9      473.9       0.9115
63658                              3      -293.7 +j   -139.5      325.2       0.9032
   TERMINAL TOTAL ...................... -1044.6 +j   -490.7     1154.1       0.9051

ELEMENT = "Line.MDV201_DA_8_687_B74448"
74445                              2        35.9 +j     16.7       39.6       0.9073
   TERMINAL TOTAL ......................    35.9 +j     16.7       39.6       0.9073
74448                              2       -35.9 +j    -16.7       39.6       0.9072
   TERMINAL TOTAL ......................   -35.9 +j    -16.7       39.6       0.9072

ELEMENT = "Line.MDV201_1012643FUSE"
1012641                            3         0.9 +j      0.4        1.0       0.9235
   TERMINAL TOTAL ......................     0.9 +j      0.4        1.0       0.9235
1012643                            3        -0.9 +j     -0.4        1.0       0.9234
   TERMINAL TOTAL ......................    -0.9 +j     -0.4        1.0       0.9234

ELEMENT = "Line.MDV201_HN_1_238_A39569"
39570                              1         3.1 +j      1.5        3.5       0.9000
   TERMINAL TOTAL ......................     3.1 +j      1.5        3.5       0.9000
39569                              1        -3.1 +j     -1.5        3.5       0.8991
   TERMINAL TOTAL ......................    -3.1 +j     -1.5        3.5       0.8991

ELEMENT = "Line.MDV201_14869FUSE"
14858                              1        22.1 +j     10.7       24.5       0.9000
   TERMINAL TOTAL ......................    22.1 +j     10.7       24.5       0.9000
14869                              1       -22.1 +j    -10.7       24.5       0.9000
   TERMINAL TOTAL ......................   -22.1 +j    -10.7       24.5       0.9000

ELEMENT = "Line.MDV201_HN_1_156_C89790"
89796                              3         2.8 +j      1.4        3.1       0.8941
   TERMINAL TOTAL ......................     2.8 +j      1.4        3.1       0.8941
89790                              3        -2.8 +j     -1.4        3.1       0.8925
   TERMINAL TOTAL ......................    -2.8 +j     -1.4        3.1       0.8925

ELEMENT = "Line.MDV201_HN_2_318_C28272"
28271                              3         2.1 +j      1.0        2.3       0.9018
   TERMINAL TOTAL ......................     2.1 +j      1.0        2.3       0.9018
28272                              3        -2.1 +j     -1.0        2.3       0.9003
   TERMINAL TOTAL ......................    -2.1 +j     -1.0        2.3       0.9003

ELEMENT = "Line.MDV201_C_1_140_ABC69477"
69478                              1        -0.0 +j     -0.0        0.0       0.0873
69478                              2         0.1 +j      0.1        0.2       0.9203
69478                              3         0.0 +j     -0.0        0.0      -0.1081
   TERMINAL TOTAL ......................     0.1 +j     -0.0        0.1      -0.9958
69477                              1         0.0 +j      0.0        0.0       0.0879
69477                              2        -0.1 +j     -0.1        0.2       0.8676
69477                              3        -0.0 +j      0.0        0.0      -0.1085
   TERMINAL TOTAL ......................    -0.1 +j     -0.0        0.2       0.9493

ELEMENT = "Line.MDV201_HN_2_948_C8176"
8175                               3         4.3 +j      1.9        4.7       0.9112
   TERMINAL TOTAL ......................     4.3 +j      1.9        4.7       0.9112
8176                               3        -4.3 +j     -1.9        4.7       0.9108
   TERMINAL TOTAL ......................    -4.3 +j     -1.9        4.7       0.9108

ELEMENT = "Line.MDV201_1144230FUSE"
8184                               1        10.1 +j      5.0       11.2       0.8951
   TERMINAL TOTAL ......................    10.1 +j      5.0       11.2       0.8951
1144230                            1       -10.1 +j     -5.0       11.2       0.8951
   TERMINAL TOTAL ......................   -10.1 +j     -5.0       11.2       0.8951

ELEMENT = "Line.MDV201_HN_2_105_ABC39582"
39595                              1        34.7 +j     17.3       38.8       0.8946
39595                              2        98.0 +j     44.1      107.4       0.9118
39595                              3        50.2 +j     24.8       56.0       0.8966
   TERMINAL TOTAL ......................   182.8 +j     86.2      202.1       0.9044
39582                              1       -34.7 +j    -17.3       38.8       0.8944
39582                              2       -98.0 +j    -44.1      107.4       0.9117
39582                              3       -50.2 +j    -24.8       56.0       0.8965
   TERMINAL TOTAL ......................  -182.8 +j    -86.3      202.1       0.9044

ELEMENT = "Line.MDV201_DA_8_691_B46386"
46385                              2        21.8 +j     10.1       24.0       0.9073
   TERMINAL TOTAL ......................    21.8 +j     10.1       24.0       0.9073
46386                              2       -21.8 +j    -10.1       24.0       0.9072
   TERMINAL TOTAL ......................   -21.8 +j    -10.1       24.0       0.9072

ELEMENT = "Line.MDV201_HN_2_457_C62244"
106884                             3        28.8 +j     13.6       31.9       0.9041
   TERMINAL TOTAL ......................    28.8 +j     13.6       31.9       0.9041
62244                              3       -28.8 +j    -13.6       31.9       0.9041
   TERMINAL TOTAL ......................   -28.8 +j    -13.6       31.9       0.9041

ELEMENT = "Line.C_1P038_SW"
1160493                            1        30.1 +j     14.0       33.2       0.9070
   TERMINAL TOTAL ......................    30.1 +j     14.0       33.2       0.9070
MDV201_8075ELB_INT                 1       -30.1 +j    -14.0       33.2       0.9070
   TERMINAL TOTAL ......................   -30.1 +j    -14.0       33.2       0.9070

ELEMENT = "Line.MDV201_8075ELB"
MDV201_8075ELB_INT                 1        30.1 +j     14.0       33.2       0.9070
   TERMINAL TOTAL ......................    30.1 +j     14.0       33.2       0.9070
8075                               1       -30.1 +j    -14.0       33.2       0.9070
   TERMINAL TOTAL ......................   -30.1 +j    -14.0       33.2       0.9070

ELEMENT = "Line.C_1P032_SW"
69460                              1         4.3 +j      2.1        4.8       0.8988
   TERMINAL TOTAL ......................     4.3 +j      2.1        4.8       0.8988
MDV201_107997ELB_INT               1        -4.3 +j     -2.1        4.8       0.8988
   TERMINAL TOTAL ......................    -4.3 +j     -2.1        4.8       0.8988

ELEMENT = "Line.MDV201_107997ELB"
MDV201_107997ELB_INT               1         4.3 +j      2.1        4.8       0.8988
   TERMINAL TOTAL ......................     4.3 +j      2.1        4.8       0.8988
107997                             1        -4.3 +j     -2.1        4.8       0.8988
   TERMINAL TOTAL ......................    -4.3 +j     -2.1        4.8       0.8988

ELEMENT = "Line.MDV201_HN_2_949_C8180"
8176                               3         4.3 +j      1.9        4.7       0.9108
   TERMINAL TOTAL ......................     4.3 +j      1.9        4.7       0.9108
8180                               3        -4.3 +j     -1.9        4.7       0.9106
   TERMINAL TOTAL ......................    -4.3 +j     -1.9        4.7       0.9106

ELEMENT = "Line.MDV201_C_1P024_A8100"
1160461                            1        27.9 +j     12.7       30.7       0.9099
   TERMINAL TOTAL ......................    27.9 +j     12.7       30.7       0.9099
8100                               1       -27.9 +j    -12.9       30.7       0.9080
   TERMINAL TOTAL ......................   -27.9 +j    -12.9       30.7       0.9080

ELEMENT = "Line.MDV201_HN_2_166_C33824"
39776                              3         7.4 +j      3.6        8.2       0.8975
   TERMINAL TOTAL ......................     7.4 +j      3.6        8.2       0.8975
33824                              3        -7.4 +j     -3.6        8.2       0.8971
   TERMINAL TOTAL ......................    -7.4 +j     -3.6        8.2       0.8971

ELEMENT = "Line.MDV201_HN_2_827_A14873"
1140227                            1         3.9 +j      2.0        4.4       0.8925
   TERMINAL TOTAL ......................     3.9 +j      2.0        4.4       0.8925
14873                              1        -3.9 +j     -2.0        4.4       0.8921
   TERMINAL TOTAL ......................    -3.9 +j     -2.0        4.4       0.8921

ELEMENT = "Line.HN_2P017_SW"
1160488                            2         2.1 +j      1.0        2.3       0.9058
   TERMINAL TOTAL ......................     2.1 +j      1.0        2.3       0.9058
MDV201_62249ELB_INT                2        -2.1 +j     -1.0        2.3       0.9058
   TERMINAL TOTAL ......................    -2.1 +j     -1.0        2.3       0.9058

ELEMENT = "Line.MDV201_62249ELB"
MDV201_62249ELB_INT                2         2.1 +j      1.0        2.3       0.9058
   TERMINAL TOTAL ......................     2.1 +j      1.0        2.3       0.9058
62249                              2        -2.1 +j     -1.0        2.3       0.9058
   TERMINAL TOTAL ......................    -2.1 +j     -1.0        2.3       0.9058

ELEMENT = "Line.MDV201_HN_2_397_B63634"
107106                             2        22.6 +j     10.4       24.9       0.9092
   TERMINAL TOTAL ......................    22.6 +j     10.4       24.9       0.9092
63634                              2       -22.6 +j    -10.4       24.9       0.9091
   TERMINAL TOTAL ......................   -22.6 +j    -10.4       24.9       0.9091

ELEMENT = "Line.MDV201_C_1P037_A1160467"
1160494                            1        26.3 +j     12.2       29.0       0.9077
   TERMINAL TOTAL ......................    26.3 +j     12.2       29.0       0.9077
1160467                            1       -26.3 +j    -12.2       29.0       0.9070
   TERMINAL TOTAL ......................   -26.3 +j    -12.2       29.0       0.9070

ELEMENT = "Line.MDV201_HN_2_280_A8185"
1144230                            1         1.5 +j      0.7        1.7       0.8995
   TERMINAL TOTAL ......................     1.5 +j      0.7        1.7       0.8995
8185                               1        -1.5 +j     -0.7        1.7       0.8984
   TERMINAL TOTAL ......................    -1.5 +j     -0.7        1.7       0.8984

ELEMENT = "Line.MDV201_HN_2_794_ABC791"
796                                1       494.3 +j    242.4      550.6       0.8979
796                                2       538.6 +j    245.2      591.8       0.9101
796                                3       488.1 +j    231.3      540.1       0.9037
   TERMINAL TOTAL ......................  1521.1 +j    718.9     1682.4       0.9041
791                                1      -494.3 +j   -242.3      550.5       0.8979
791                                2      -538.6 +j   -245.1      591.7       0.9102
791                                3      -488.1 +j   -231.2      540.1       0.9038
   TERMINAL TOTAL ...................... -1521.0 +j   -718.6     1682.2       0.9042

ELEMENT = "Line.MDV201_HN_2_677_C62303"
62306                              3         7.6 +j      3.5        8.3       0.9075
   TERMINAL TOTAL ......................     7.6 +j      3.5        8.3       0.9075
62303                              3        -7.6 +j     -3.5        8.3       0.9072
   TERMINAL TOTAL ......................    -7.6 +j     -3.5        8.3       0.9072

ELEMENT = "Line.MDV201_100478FUSE"
14839                              3         1.1 +j      0.6        1.3       0.8712
   TERMINAL TOTAL ......................     1.1 +j      0.6        1.3       0.8712
100478                             3        -1.1 +j     -0.6        1.3       0.8711
   TERMINAL TOTAL ......................    -1.1 +j     -0.6        1.3       0.8711

ELEMENT = "Line.MDV201_HN_2_115_ABC58446"
58441                              1         8.3 +j      4.4        9.4       0.8848
58441                              2         4.7 +j      2.3        5.2       0.9010
58441                              3        32.1 +j     15.9       35.8       0.8968
   TERMINAL TOTAL ......................    45.2 +j     22.5       50.5       0.8950
58446                              1        -8.3 +j     -4.4        9.4       0.8846
58446                              2        -4.7 +j     -2.3        5.2       0.9004
58446                              3       -32.1 +j    -15.9       35.8       0.8967
   TERMINAL TOTAL ......................   -45.2 +j    -22.5       50.5       0.8949

ELEMENT = "Line.MDV201_HN_2_895_B52515"
112112                             2        18.6 +j      8.3       20.3       0.9141
   TERMINAL TOTAL ......................    18.6 +j      8.3       20.3       0.9141
52515                              2       -18.6 +j     -8.3       20.3       0.9140
   TERMINAL TOTAL ......................   -18.6 +j     -8.3       20.3       0.9140

ELEMENT = "Line.MDV201_98795FUSE"
846                                1         0.6 +j      0.3        0.6       0.8773
846                                2         0.6 +j      0.3        0.6       0.8900
846                                3         0.6 +j      0.3        0.7       0.8852
   TERMINAL TOTAL ......................     1.7 +j      0.9        1.9       0.8842
98795                              1        -0.6 +j     -0.3        0.6       0.8771
98795                              2        -0.6 +j     -0.3        0.6       0.8896
98795                              3        -0.6 +j     -0.3        0.7       0.8849
   TERMINAL TOTAL ......................    -1.7 +j     -0.9        1.9       0.8839

ELEMENT = "Line.MDV201_HN_2_246_B39602"
39623                              2         8.6 +j      3.8        9.4       0.9161
   TERMINAL TOTAL ......................     8.6 +j      3.8        9.4       0.9161
39602                              2        -8.6 +j     -3.8        9.4       0.9157
   TERMINAL TOTAL ......................    -8.6 +j     -3.8        9.4       0.9157

ELEMENT = "Line.MDV201_DA_8_149_ABC56778"
56777                              1        10.4 +j      5.1       11.5       0.8978
56777                              2        49.4 +j     22.8       54.4       0.9082
56777                              3        52.8 +j     24.7       58.3       0.9056
   TERMINAL TOTAL ......................   112.5 +j     52.6      124.2       0.9060
56778                              1       -10.4 +j     -5.1       11.5       0.8972
56778                              2       -49.4 +j    -22.8       54.4       0.9081
56778                              3       -52.8 +j    -24.7       58.3       0.9055
   TERMINAL TOTAL ......................  -112.5 +j    -52.6      124.2       0.9059

ELEMENT = "Line.MDV201_HN_2_083_ABC62239"
44586                              1       119.6 +j     57.8      132.9       0.9003
44586                              2        69.8 +j     31.8       76.7       0.9101
44586                              3        85.5 +j     40.0       94.4       0.9058
   TERMINAL TOTAL ......................   274.9 +j    129.6      303.9       0.9045
62239                              1      -119.6 +j    -57.8      132.9       0.9003
62239                              2       -69.8 +j    -31.8       76.7       0.9101
62239                              3       -85.5 +j    -40.0       94.4       0.9058
   TERMINAL TOTAL ......................  -274.9 +j   -129.6      303.9       0.9045

ELEMENT = "Line.MDV201_DA_8_145_ABC46393"
46394                              1        -0.0 +j     -0.0        0.0       0.0839
46394                              2         0.0 +j     -0.0        0.0      -0.0002
46394                              3         0.0 +j     -0.0        0.0      -0.0836
   TERMINAL TOTAL ......................     0.0 +j     -0.0        0.0      -0.0000
46393                              1        -0.0 +j      0.0        0.0      -0.8153
46393                              2        -0.0 +j     -0.0        0.0       0.8673
46393                              3        -0.0 +j      0.0        0.0      -0.7044
   TERMINAL TOTAL ......................    -0.0 +j      0.0        0.0      -0.9385

ELEMENT = "Line.MDV201_HN_2_729_B28246"
1144254                            2         2.0 +j      1.0        2.2       0.8979
   TERMINAL TOTAL ......................     2.0 +j      1.0        2.2       0.8979
28246                              2        -2.0 +j     -1.0        2.2       0.8973
   TERMINAL TOTAL ......................    -2.0 +j     -1.0        2.2       0.8973

ELEMENT = "Line.MDV201_HN_2_954_B39771"
14996                              2         5.1 +j      2.5        5.7       0.9012
   TERMINAL TOTAL ......................     5.1 +j      2.5        5.7       0.9012
39771                              2        -5.1 +j     -2.5        5.7       0.9008
   TERMINAL TOTAL ......................    -5.1 +j     -2.5        5.7       0.9008

ELEMENT = "Line.MDV201_108776FUSE"
74432                              1         3.0 +j      1.6        3.4       0.8765
   TERMINAL TOTAL ......................     3.0 +j      1.6        3.4       0.8765
108776                             1        -3.0 +j     -1.6        3.4       0.8764
   TERMINAL TOTAL ......................    -3.0 +j     -1.6        3.4       0.8764

ELEMENT = "Line.HN_2P028_SW"
1160489                            1         2.4 +j      1.4        2.8       0.8628
   TERMINAL TOTAL ......................     2.4 +j      1.4        2.8       0.8628
MDV201_795ELB_INT                  1        -2.4 +j     -1.4        2.8       0.8628
   TERMINAL TOTAL ......................    -2.4 +j     -1.4        2.8       0.8628

ELEMENT = "Line.MDV201_795ELB"
MDV201_795ELB_INT                  1         2.4 +j      1.4        2.8       0.8628
   TERMINAL TOTAL ......................     2.4 +j      1.4        2.8       0.8628
795                                1        -2.4 +j     -1.4        2.8       0.8628
   TERMINAL TOTAL ......................    -2.4 +j     -1.4        2.8       0.8628

ELEMENT = "Line.MDV201_1140227FUSE"
14879                              1         3.9 +j      2.0        4.4       0.8926
   TERMINAL TOTAL ......................     3.9 +j      2.0        4.4       0.8926
1140227                            1        -3.9 +j     -2.0        4.4       0.8925
   TERMINAL TOTAL ......................    -3.9 +j     -2.0        4.4       0.8925

ELEMENT = "Line.MDV201_HN_2_488_C8103"
8099                               3        11.9 +j      5.6       13.2       0.9063
   TERMINAL TOTAL ......................    11.9 +j      5.6       13.2       0.9063
8103                               3       -11.9 +j     -5.6       13.2       0.9062
   TERMINAL TOTAL ......................   -11.9 +j     -5.6       13.2       0.9062

ELEMENT = "Line.MDV201_DA_8_917_A56768"
1000983                            1        66.6 +j     31.8       73.8       0.9022
   TERMINAL TOTAL ......................    66.6 +j     31.8       73.8       0.9022
56768                              1       -66.6 +j    -31.9       73.8       0.9022
   TERMINAL TOTAL ......................   -66.6 +j    -31.9       73.8       0.9022

ELEMENT = "Line.MDV201_HN_2_029_ABC62262"
62265                              1       119.6 +j     57.9      132.9       0.9002
62265                              2        54.5 +j     25.0       60.0       0.9088
62265                              3        56.7 +j     26.4       62.5       0.9064
   TERMINAL TOTAL ......................   230.8 +j    109.3      255.4       0.9038
62262                              1      -119.6 +j    -57.9      132.9       0.9002
62262                              2       -54.5 +j    -25.1       60.0       0.9087
62262                              3       -56.7 +j    -26.4       62.5       0.9063
   TERMINAL TOTAL ......................  -230.8 +j   -109.3      255.4       0.9037

ELEMENT = "Line.MDV201_HN_2_955_B39752"
39771                              2         4.2 +j      2.0        4.6       0.9042
   TERMINAL TOTAL ......................     4.2 +j      2.0        4.6       0.9042
39752                              2        -4.2 +j     -2.0        4.6       0.9036
   TERMINAL TOTAL ......................    -4.2 +j     -2.0        4.6       0.9036

ELEMENT = "Line.MDV201_DA_8_215_B1017348"
1017350                            2         8.9 +j      4.1        9.8       0.9097
   TERMINAL TOTAL ......................     8.9 +j      4.1        9.8       0.9097
1017348                            2        -8.9 +j     -4.1        9.8       0.9092
   TERMINAL TOTAL ......................    -8.9 +j     -4.1        9.8       0.9092

ELEMENT = "Line.MDV201_DA_8_678_A56764"
56760                              1         8.5 +j      4.1        9.5       0.9013
   TERMINAL TOTAL ......................     8.5 +j      4.1        9.5       0.9013
56764                              1        -8.5 +j     -4.1        9.5       0.9010
   TERMINAL TOTAL ......................    -8.5 +j     -4.1        9.5       0.9010

ELEMENT = "Line.MDV201_HN_2_834_B39617"
39620                              2        10.7 +j      4.8       11.7       0.9125
   TERMINAL TOTAL ......................    10.7 +j      4.8       11.7       0.9125
39617                              2       -10.7 +j     -4.8       11.7       0.9122
   TERMINAL TOTAL ......................   -10.7 +j     -4.8       11.7       0.9122

ELEMENT = "Line.MDV201_HN_2_906_A39580"
39589                              1         3.0 +j      1.5        3.4       0.9007
   TERMINAL TOTAL ......................     3.0 +j      1.5        3.4       0.9007
39580                              1        -3.0 +j     -1.5        3.4       0.9005
   TERMINAL TOTAL ......................    -3.0 +j     -1.5        3.4       0.9005

ELEMENT = "Line.MDV201_DA_8_734_C74440"
74446                              3        11.5 +j      5.3       12.6       0.9088
   TERMINAL TOTAL ......................    11.5 +j      5.3       12.6       0.9088
74440                              3       -11.5 +j     -5.3       12.6       0.9087
   TERMINAL TOTAL ......................   -11.5 +j     -5.3       12.6       0.9087

ELEMENT = "Line.MDV201_DA_8_157_ABC58429"
58430                              1         5.5 +j      2.6        6.1       0.9030
58430                              2         2.3 +j      1.0        2.5       0.9148
58430                              3        52.2 +j     24.6       57.7       0.9050
   TERMINAL TOTAL ......................    60.0 +j     28.2       66.3       0.9052
58429                              1        -5.5 +j     -2.6        6.1       0.9021
58429                              2        -2.3 +j     -1.0        2.5       0.9125
58429                              3       -52.2 +j    -24.6       57.7       0.9049
   TERMINAL TOTAL ......................   -60.0 +j    -28.2       66.3       0.9049

ELEMENT = "Line.MDV201_HN_2_605_A21655"
28213                              1        23.1 +j     12.2       26.1       0.8834
   TERMINAL TOTAL ......................    23.1 +j     12.2       26.1       0.8834
21655                              1       -23.1 +j    -12.2       26.1       0.8833
   TERMINAL TOTAL ......................   -23.1 +j    -12.2       26.1       0.8833

ELEMENT = "Line.MDV201_HN_2_636_AC28249"
63666                              1        47.3 +j     23.2       52.7       0.8978
63666                              3         5.4 +j      2.5        6.0       0.9071
   TERMINAL TOTAL ......................    52.7 +j     25.7       58.7       0.8988
28249                              1       -47.3 +j    -23.2       52.7       0.8978
28249                              3        -5.4 +j     -2.5        6.0       0.9066
   TERMINAL TOTAL ......................   -52.7 +j    -25.7       58.7       0.8987

ELEMENT = "Line.MDV201_HN_2_705_ABC52524"
105409                             1        32.3 +j     16.3       36.2       0.8931
105409                             2       132.8 +j     59.1      145.3       0.9137
105409                             3        26.9 +j     12.8       29.8       0.9029
   TERMINAL TOTAL ......................   192.0 +j     88.1      211.2       0.9088
52524                              1       -32.3 +j    -16.3       36.2       0.8930
52524                              2      -132.8 +j    -59.1      145.3       0.9137
52524                              3       -26.9 +j    -12.8       29.8       0.9028
   TERMINAL TOTAL ......................  -191.9 +j    -88.1      211.2       0.9088

ELEMENT = "Line.MDV201_DA_8_928_A39733"
74424                              1        23.2 +j     11.0       25.7       0.9027
   TERMINAL TOTAL ......................    23.2 +j     11.0       25.7       0.9027
39733                              1       -23.2 +j    -11.1       25.7       0.9026
   TERMINAL TOTAL ......................   -23.2 +j    -11.1       25.7       0.9026

ELEMENT = "Line.MDV201_HN_2_383_ABC8113"
8111                               1        31.3 +j     16.4       35.3       0.8855
8111                               2         2.1 +j      1.0        2.3       0.9047
8111                               3        15.2 +j      7.2       16.8       0.9023
   TERMINAL TOTAL ......................    48.5 +j     24.6       54.4       0.8916
8113                               1       -31.3 +j    -16.4       35.3       0.8854
8113                               2        -2.1 +j     -1.0        2.3       0.9028
8113                               3       -15.2 +j     -7.3       16.8       0.9021
   TERMINAL TOTAL ......................   -48.5 +j    -24.7       54.4       0.8914

ELEMENT = "Line.MDV201_HN_2_803_B837"
836                                2        39.9 +j     17.9       43.7       0.9125
   TERMINAL TOTAL ......................    39.9 +j     17.9       43.7       0.9125
837                                2       -39.9 +j    -17.9       43.7       0.9125
   TERMINAL TOTAL ......................   -39.9 +j    -17.9       43.7       0.9125

ELEMENT = "Line.SW-HN_2_793_SW"
1023346                            1       494.3 +j    242.4      550.6       0.8979
1023346                            2       538.6 +j    245.2      591.8       0.9101
1023346                            3       488.1 +j    231.3      540.2       0.9037
   TERMINAL TOTAL ......................  1521.1 +j    718.9     1682.4       0.9041
MDV201_796USD_INT                  1      -494.3 +j   -242.4      550.6       0.8979
MDV201_796USD_INT                  2      -538.6 +j   -245.2      591.8       0.9101
MDV201_796USD_INT                  3      -488.1 +j   -231.3      540.1       0.9037
   TERMINAL TOTAL ...................... -1521.1 +j   -718.9     1682.4       0.9041

ELEMENT = "Line.MDV201_796USD"
MDV201_796USD_INT                  1       494.3 +j    242.4      550.6       0.8979
MDV201_796USD_INT                  2       538.6 +j    245.2      591.8       0.9101
MDV201_796USD_INT                  3       488.1 +j    231.3      540.1       0.9037
   TERMINAL TOTAL ......................  1521.1 +j    718.9     1682.4       0.9041
796                                1      -494.3 +j   -242.4      550.6       0.8979
796                                2      -538.6 +j   -245.2      591.8       0.9101
796                                3      -488.1 +j   -231.3      540.1       0.9037
   TERMINAL TOTAL ...................... -1521.1 +j   -718.9     1682.4       0.9041

ELEMENT = "Line.MDV201_HN_1_332_C28263"
28262                              3         1.0 +j      0.5        1.1       0.8988
   TERMINAL TOTAL ......................     1.0 +j      0.5        1.1       0.8988
28263                              3        -1.0 +j     -0.5        1.1       0.8970
   TERMINAL TOTAL ......................    -1.0 +j     -0.5        1.1       0.8970

ELEMENT = "Line.MDV201_HN_2_890_B52521"
52519                              2         6.6 +j      3.0        7.3       0.9116
   TERMINAL TOTAL ......................     6.6 +j      3.0        7.3       0.9116
52521                              2        -6.6 +j     -3.0        7.3       0.9111
   TERMINAL TOTAL ......................    -6.6 +j     -3.0        7.3       0.9111

ELEMENT = "Line.MDV201_HN_2_377_ABC28196"
28199                              1         1.2 +j      0.6        1.3       0.8765
28199                              2         1.5 +j      0.8        1.7       0.8949
28199                              3         1.1 +j      0.5        1.2       0.8935
   TERMINAL TOTAL ......................     3.7 +j      1.9        4.2       0.8889
28196                              1        -1.2 +j     -0.6        1.3       0.8733
28196                              2        -1.5 +j     -0.8        1.7       0.8922
28196                              3        -1.1 +j     -0.5        1.2       0.8899
   TERMINAL TOTAL ......................    -3.7 +j     -2.0        4.2       0.8858

ELEMENT = "Line.MDV201_HN_1_331_C28262"
28264                              3         1.0 +j      0.5        1.1       0.9016
   TERMINAL TOTAL ......................     1.0 +j      0.5        1.1       0.9016
28262                              3        -1.0 +j     -0.5        1.1       0.8988
   TERMINAL TOTAL ......................    -1.0 +j     -0.5        1.1       0.8988

ELEMENT = "Line.MDV201_HN_2_628_C52531"
28229                              3         5.8 +j      2.6        6.4       0.9126
   TERMINAL TOTAL ......................     5.8 +j      2.6        6.4       0.9126
52531                              3        -5.8 +j     -2.6        6.4       0.9121
   TERMINAL TOTAL ......................    -5.8 +j     -2.6        6.4       0.9121

ELEMENT = "Line.MDV201_HN_2_964_A14870"
14869                              1        22.1 +j     10.7       24.5       0.9000
   TERMINAL TOTAL ......................    22.1 +j     10.7       24.5       0.9000
14870                              1       -22.1 +j    -10.7       24.5       0.8998
   TERMINAL TOTAL ......................   -22.1 +j    -10.7       24.5       0.8998

ELEMENT = "Line.MDV201_DA_8_200_C46399"
46398                              3        42.1 +j     19.9       46.6       0.9041
   TERMINAL TOTAL ......................    42.1 +j     19.9       46.6       0.9041
46399                              3       -42.1 +j    -19.9       46.6       0.9041
   TERMINAL TOTAL ......................   -42.1 +j    -19.9       46.6       0.9041

ELEMENT = "Line.MDV201_106895FUSE"
62264                              2         1.6 +j      0.8        1.8       0.9021
   TERMINAL TOTAL ......................     1.6 +j      0.8        1.8       0.9021
106895                             2        -1.6 +j     -0.8        1.8       0.9020
   TERMINAL TOTAL ......................    -1.6 +j     -0.8        1.8       0.9020

ELEMENT = "Line.HN_2P054_SW"
1163442                            3        -0.0 +j     -0.0        0.0       0.0033
   TERMINAL TOTAL ......................    -0.0 +j     -0.0        0.0       0.0033
MDV201_1163443ELB_INT              3         0.0 +j     -0.0        0.0      -0.5074
   TERMINAL TOTAL ......................     0.0 +j     -0.0        0.0      -0.5074

ELEMENT = "Line.MDV201_1163443ELB"
MDV201_1163443ELB_INT              3         0.0 +j      0.0        0.0       0.0036
   TERMINAL TOTAL ......................     0.0 +j      0.0        0.0       0.0036
1163443                            3        -0.0 +j     -0.0        0.0       0.0036
   TERMINAL TOTAL ......................    -0.0 +j     -0.0        0.0       0.0036

ELEMENT = "Line.MDV201_DA_8_142_ABC6584"
99420                              1       105.7 +j     50.8      117.3       0.9015
99420                              2        53.4 +j     24.7       58.9       0.9081
99420                              3        55.6 +j     26.0       61.3       0.9060
   TERMINAL TOTAL ......................   214.7 +j    101.4      237.5       0.9043
6584                               1      -105.7 +j    -50.8      117.3       0.9015
6584                               2       -53.4 +j    -24.7       58.9       0.9080
6584                               3       -55.6 +j    -26.0       61.3       0.9059
   TERMINAL TOTAL ......................  -214.7 +j   -101.4      237.5       0.9042

ELEMENT = "Line.MDV201_1144249FUSE"
14828                              3        26.8 +j     12.9       29.8       0.9017
   TERMINAL TOTAL ......................    26.8 +j     12.9       29.8       0.9017
1144249                            3       -26.8 +j    -12.9       29.8       0.9017
   TERMINAL TOTAL ......................   -26.8 +j    -12.9       29.8       0.9017

ELEMENT = "Line.MDV201_HN_2_965_A63726"
14870                              1        18.5 +j      9.0       20.5       0.8997
   TERMINAL TOTAL ......................    18.5 +j      9.0       20.5       0.8997
63726                              1       -18.5 +j     -9.0       20.5       0.8995
   TERMINAL TOTAL ......................   -18.5 +j     -9.0       20.5       0.8995

ELEMENT = "Line.MDV201_C_1_410_A8131"
8134                               1         7.4 +j      4.0        8.4       0.8772
   TERMINAL TOTAL ......................     7.4 +j      4.0        8.4       0.8772
8131                               1        -7.4 +j     -4.0        8.4       0.8768
   TERMINAL TOTAL ......................    -7.4 +j     -4.0        8.4       0.8768

ELEMENT = "Line.MDV201_HN_2_463_C62234"
62232                              3        17.9 +j      8.4       19.7       0.9050
   TERMINAL TOTAL ......................    17.9 +j      8.4       19.7       0.9050
62234                              3       -17.9 +j     -8.4       19.7       0.9049
   TERMINAL TOTAL ......................   -17.9 +j     -8.4       19.7       0.9049

ELEMENT = "Line.MDV201_HN_2_133_ABC8083"
841                                1       128.8 +j     61.3      142.6       0.9029
841                                2       196.4 +j     88.5      215.4       0.9118
841                                3        50.2 +j     24.6       55.9       0.8981
   TERMINAL TOTAL ......................   375.4 +j    174.4      413.9       0.9070
8083                               1      -128.8 +j    -61.3      142.6       0.9029
8083                               2      -196.4 +j    -88.5      215.4       0.9118
8083                               3       -50.2 +j    -24.6       55.9       0.8981
   TERMINAL TOTAL ......................  -375.4 +j   -174.4      413.9       0.9069

ELEMENT = "Line.MDV201_HN_2_840_B52518"
39579                              2        61.9 +j     27.9       68.0       0.9116
   TERMINAL TOTAL ......................    61.9 +j     27.9       68.0       0.9116
52518                              2       -61.9 +j    -27.9       68.0       0.9115
   TERMINAL TOTAL ......................   -61.9 +j    -27.9       68.0       0.9115

ELEMENT = "Line.MDV201_HN_2_808_ABC783"
782                                1       494.2 +j    242.1      550.3       0.8980
782                                2       538.5 +j    244.8      591.5       0.9103
782                                3       488.1 +j    231.0      540.0       0.9039
   TERMINAL TOTAL ......................  1520.7 +j    717.9     1681.6       0.9043
783                                1      -494.1 +j   -242.0      550.2       0.8981
783                                2      -538.4 +j   -244.7      591.4       0.9104
783                                3      -488.1 +j   -230.9      539.9       0.9040
   TERMINAL TOTAL ...................... -1520.6 +j   -717.6     1681.4       0.9044

ELEMENT = "Line.MDV201_HN_2_608_A8133"
8132                               1         0.8 +j      0.4        0.9       0.8634
   TERMINAL TOTAL ......................     0.8 +j      0.4        0.9       0.8634
8133                               1        -0.8 +j     -0.5        0.9       0.8611
   TERMINAL TOTAL ......................    -0.8 +j     -0.5        0.9       0.8611

ELEMENT = "Line.MDV201_C_1P032_1160490"
MDV201_C_1P032_1160490_INT         1         0.0 +j      0.0        0.0       1.0000
   TERMINAL TOTAL ......................     0.0 +j      0.0        0.0       1.0000
1160490                            1         0.0 +j      0.0        0.0       1.0000
   TERMINAL TOTAL ......................     0.0 +j      0.0        0.0       1.0000

ELEMENT = "Line.MDV201_HN_2_077_C28274"
100477                             3         2.1 +j      1.1        2.4       0.8944
   TERMINAL TOTAL ......................     2.1 +j      1.1        2.4       0.8944
28274                              3        -2.1 +j     -1.1        2.4       0.8930
   TERMINAL TOTAL ......................    -2.1 +j     -1.1        2.4       0.8930

ELEMENT = "Line.MDV201_HN_2_711_A63676"
63677                              1         6.2 +j      3.2        7.0       0.8908
   TERMINAL TOTAL ......................     6.2 +j      3.2        7.0       0.8908
63676                              1        -6.2 +j     -3.2        7.0       0.8905
   TERMINAL TOTAL ......................    -6.2 +j     -3.2        7.0       0.8905

ELEMENT = "Line.MDV201_HN_2_923_C28266"
102184                             3         1.4 +j      0.6        1.5       0.9060
   TERMINAL TOTAL ......................     1.4 +j      0.6        1.5       0.9060
28266                              3        -1.4 +j     -0.6        1.5       0.9051
   TERMINAL TOTAL ......................    -1.4 +j     -0.6        1.5       0.9051

ELEMENT = "Line.MDV201_HN_21041_C39773"
39772                              3         1.6 +j      0.8        1.8       0.8986
   TERMINAL TOTAL ......................     1.6 +j      0.8        1.8       0.8986
39773                              3        -1.6 +j     -0.8        1.8       0.8962
   TERMINAL TOTAL ......................    -1.6 +j     -0.8        1.8       0.8962

ELEMENT = "Line.MDV201_HN_2_644_A28238"
28241                              1        20.7 +j     10.2       23.0       0.8968
   TERMINAL TOTAL ......................    20.7 +j     10.2       23.0       0.8968
28238                              1       -20.7 +j    -10.2       23.0       0.8967
   TERMINAL TOTAL ......................   -20.7 +j    -10.2       23.0       0.8967

ELEMENT = "Line.MDV201_1144260FUSE"
848                                2        73.5 +j     33.0       80.5       0.9124
   TERMINAL TOTAL ......................    73.5 +j     33.0       80.5       0.9124
1144260                            2       -73.5 +j    -33.0       80.5       0.9124
   TERMINAL TOTAL ......................   -73.5 +j    -33.0       80.5       0.9124

ELEMENT = "Line.MDV201_HN_2_539_C8098"
8095                               3         5.6 +j      2.7        6.2       0.8990
   TERMINAL TOTAL ......................     5.6 +j      2.7        6.2       0.8990
8098                               3        -5.6 +j     -2.7        6.2       0.8986
   TERMINAL TOTAL ......................    -5.6 +j     -2.7        6.2       0.8986

ELEMENT = "Line.MDV201_HN_2_800_B850"
849                                2        24.0 +j     10.7       26.2       0.9137
   TERMINAL TOTAL ......................    24.0 +j     10.7       26.2       0.9137
850                                2       -24.0 +j    -10.7       26.2       0.9136
   TERMINAL TOTAL ......................   -24.0 +j    -10.7       26.2       0.9136

ELEMENT = "Line.MDV201_HN_2_092_ABC63711"
63714                              1       119.7 +j     57.8      132.9       0.9004
63714                              2        92.2 +j     42.1      101.4       0.9098
63714                              3       194.1 +j     90.4      214.1       0.9066
   TERMINAL TOTAL ......................   405.9 +j    190.2      448.3       0.9055
63711                              1      -119.7 +j    -57.8      132.9       0.9004
63711                              2       -92.2 +j    -42.1      101.4       0.9097
63711                              3      -194.0 +j    -90.3      214.0       0.9066
   TERMINAL TOTAL ......................  -405.9 +j   -190.2      448.3       0.9055

ELEMENT = "Line.MDV201_HN_2P014_B1160485"
1160484                            2        15.6 +j      6.6       17.0       0.9209
   TERMINAL TOTAL ......................    15.6 +j      6.6       17.0       0.9209
1160485                            2       -15.6 +j     -6.7       17.0       0.9198
   TERMINAL TOTAL ......................   -15.6 +j     -6.7       17.0       0.9198

ELEMENT = "Line.MDV201_C_1_412_A8128"
8127                               1         6.5 +j      3.5        7.4       0.8777
   TERMINAL TOTAL ......................     6.5 +j      3.5        7.4       0.8777
8128                               1        -6.5 +j     -3.5        7.4       0.8774
   TERMINAL TOTAL ......................    -6.5 +j     -3.5        7.4       0.8774

ELEMENT = "Line.MDV201_HN_2_533_A8117"
8119                               1         3.5 +j      1.8        3.9       0.8913
   TERMINAL TOTAL ......................     3.5 +j      1.8        3.9       0.8913
8117                               1        -3.5 +j     -1.8        3.9       0.8906
   TERMINAL TOTAL ......................    -3.5 +j     -1.8        3.9       0.8906

ELEMENT = "Line.MDV201_HN_2_970_A63710"
63709                              1         4.3 +j      2.1        4.8       0.8984
   TERMINAL TOTAL ......................     4.3 +j      2.1        4.8       0.8984
63710                              1        -4.3 +j     -2.1        4.8       0.8979
   TERMINAL TOTAL ......................    -4.3 +j     -2.1        4.8       0.8979

ELEMENT = "Line.MDV201_C_1_400_A21653"
21654                              1        20.0 +j     10.6       22.7       0.8837
   TERMINAL TOTAL ......................    20.0 +j     10.6       22.7       0.8837
21653                              1       -20.0 +j    -10.6       22.7       0.8836
   TERMINAL TOTAL ......................   -20.0 +j    -10.6       22.7       0.8836

ELEMENT = "Line.MDV201_HN_2_124_C63703"
63708                              3         5.5 +j      2.8        6.2       0.8928
   TERMINAL TOTAL ......................     5.5 +j      2.8        6.2       0.8928
63703                              3        -5.5 +j     -2.8        6.2       0.8920
   TERMINAL TOTAL ......................    -5.5 +j     -2.8        6.2       0.8920

ELEMENT = "Line.MDV201_106254FUSE"
58411                              1         1.5 +j      0.7        1.7       0.9010
   TERMINAL TOTAL ......................     1.5 +j      0.7        1.7       0.9010
106254                             1        -1.5 +j     -0.7        1.7       0.9009
   TERMINAL TOTAL ......................    -1.5 +j     -0.7        1.7       0.9009

ELEMENT = "Line.MDV201_HN_1_380_C1012407"
1012405                            3         3.7 +j      1.7        4.1       0.9043
   TERMINAL TOTAL ......................     3.7 +j      1.7        4.1       0.9043
1012407                            3        -3.7 +j     -1.7        4.1       0.9038
   TERMINAL TOTAL ......................    -3.7 +j     -1.7        4.1       0.9038

ELEMENT = "Line.MDV201_HN_2_381_ABC1010731"
810                                1        31.3 +j     16.4       35.3       0.8857
810                                2         2.1 +j      1.0        2.3       0.9093
810                                3        29.8 +j     14.1       33.0       0.9038
   TERMINAL TOTAL ......................    63.2 +j     31.5       70.6       0.8952
1010731                            1       -31.3 +j    -16.4       35.3       0.8856
1010731                            2        -2.1 +j     -1.0        2.3       0.9074
1010731                            3       -29.8 +j    -14.1       33.0       0.9037
   TERMINAL TOTAL ......................   -63.2 +j    -31.5       70.6       0.8950

ELEMENT = "Line.MDV201_DA_8_732_C74453"
39745                              3        15.8 +j      7.3       17.4       0.9085
   TERMINAL TOTAL ......................    15.8 +j      7.3       17.4       0.9085
74453                              3       -15.8 +j     -7.3       17.4       0.9083
   TERMINAL TOTAL ......................   -15.8 +j     -7.3       17.4       0.9083

ELEMENT = "Line.MDV201_DA_8_144_ABC6582"
6580                               1       108.7 +j     52.2      120.5       0.9014
6580                               2        53.4 +j     24.6       58.9       0.9081
6580                               3        55.6 +j     26.0       61.3       0.9060
   TERMINAL TOTAL ......................   217.7 +j    102.8      240.7       0.9043
6582                               1      -108.7 +j    -52.2      120.5       0.9014
6582                               2       -53.4 +j    -24.7       58.9       0.9081
...